Version 4.1
SHEET 1 4112 860
WIRE 528 -64 240 -64
WIRE 320 112 320 0
WIRE 240 128 240 -64
WIRE 288 128 288 112
WIRE 288 128 240 128
WIRE 304 128 288 128
WIRE 528 144 352 144
WIRE 528 144 528 -64
WIRE -160 160 -176 160
WIRE -112 160 -160 160
WIRE 144 160 -48 160
WIRE 288 160 144 160
WIRE 304 160 288 160
WIRE 528 160 528 144
WIRE 592 160 528 160
WIRE 624 160 592 160
WIRE 144 176 144 160
WIRE 288 176 288 160
WIRE 320 272 320 176
WIRE 144 272 144 256
FLAG 320 0 V+
FLAG 320 272 V-
FLAG 592 160 OUT
FLAG -160 160 IN
FLAG 144 272 REF
SYMBOL cap -48 144 R90
WINDOW 0 0 32 VBottom 2
WINDOW 3 32 32 VTop 2
SYMATTR InstName C1
SYMATTR Value 390n
SYMBOL res 128 160 R0
SYMATTR InstName R1
SYMATTR Value 680k
SYMBOL Opamps\\LT6004 320 144 R0
SYMATTR InstName U1
TEXT -176 504 Left 4 ;This subcircuit is not simulatable.  \nPlease open one of the \n"Filter Design*.asc" schematics to \nsimulate your Filter Wizard design.
