Version 4.1
SHEET 1 4112 860
WIRE 176 -144 -16 -144
WIRE 496 -144 176 -144
WIRE -16 -64 -16 -144
WIRE 176 -48 176 -144
WIRE 320 112 320 -32
WIRE -16 128 -16 96
WIRE -16 128 -48 128
WIRE 16 128 -16 128
WIRE 176 128 176 16
WIRE 176 128 96 128
WIRE 288 128 288 112
WIRE 288 128 176 128
WIRE 304 128 288 128
WIRE 496 128 496 -144
WIRE 560 128 496 128
WIRE 592 128 560 128
WIRE 496 144 496 128
WIRE 496 144 352 144
WIRE 288 160 240 160
WIRE 304 160 288 160
WIRE -16 176 -16 128
WIRE 288 176 288 160
WIRE -16 288 -16 240
WIRE 240 288 240 160
WIRE 320 304 320 176
FLAG 320 -32 V+
FLAG 320 304 V-
FLAG 560 128 OUT
FLAG -208 128 IN
FLAG 240 288 REF
FLAG -16 288 REF
SYMBOL res 112 112 R90
WINDOW 0 0 56 VBottom 2
WINDOW 3 32 56 VTop 2
SYMATTR InstName R2
SYMATTR Value 270k
SYMBOL res -32 112 R90
WINDOW 0 0 56 VBottom 2
WINDOW 3 32 56 VTop 2
SYMATTR InstName R1
SYMATTR Value 39k
SYMBOL cap 160 -48 R0
SYMATTR InstName C2
SYMATTR Value 33n
SYMBOL cap -32 176 R0
SYMATTR InstName C1
SYMATTR Value 470n
SYMBOL Opamps\\LT6004 320 144 R0
SYMATTR InstName U1
SYMBOL res -112 112 R90
WINDOW 0 0 56 VBottom 2
WINDOW 3 32 56 VTop 2
SYMATTR InstName R3
SYMATTR Value 470k
SYMBOL res 0 112 R180
WINDOW 0 36 76 Left 2
WINDOW 3 36 40 Left 2
SYMATTR InstName R4
SYMATTR Value 470k
SYMBOL res 0 32 R180
WINDOW 0 36 76 Left 2
WINDOW 3 36 40 Left 2
SYMATTR InstName R6
SYMATTR Value 39k
TEXT -176 504 Left 4 ;This subcircuit is not simulatable.  \nPlease open one of the \n"Filter Design*.asc" schematics to \nsimulate your Filter Wizard design.
